<?xml version="1.0" encoding="iso-8859-1"?>
<configuration xmlns:xsi="http://www.w3.org/2001/XMLSchema-instance"
  xsi:noNamespaceSchemaLocation="http://sumo.dlr.de/xsd/sumoConfiguration.xsd">
    <input>
        <net-file value="test.net.xml"/>
        <route-files value="test.rou.xml"/>
        <gui-settings-file value="gui.xml" />
    </input>
    <time>
        <begin value="0"/>
        <end value="500"/>
        <step-length value= "0.01" />
    </time>
    <time-to-teleport value="-1"/>
</configuration>